%%%%%%%%%%%%%%%%%%%%%%%%%%%%%%%%%%%%%%%%%%%%%%%%%%%%%%%%%%%%%%%%%%%%%%%%%%%%%%%%
%                                                                              %
% SU2 configuration file                                                       %
% Case description: ONERA M6 wing in inviscid, transonic flow                  %
% Author: Thomas D. Economon, Ruben Sanchez  	              	       	         %
% Institution: Stanford University, TU Kaiserslautern                          %
% Date: 2015.08.25, updated 2019.09.05                                         %
%                                                                              %
%%%%%%%%%%%%%%%%%%%%%%%%%%%%%%%%%%%%%%%%%%%%%%%%%%%%%%%%%%%%%%%%%%%%%%%%%%%%%%%%

% ------------- DIRECT, ADJOINT, AND LINEARIZED PROBLEM DEFINITION ------------%

SOLVER= EULER
MATH_PROBLEM= DISCRETE_ADJOINT
RESTART_SOL= NO

SINGLEZONE_DRIVER = YES
ITER = 500

% -------------------- COMPRESSIBLE FREE-STREAM DEFINITION --------------------%

MACH_NUMBER= 0.8395
AOA= 3.06
SIDESLIP_ANGLE= 0.0
FREESTREAM_PRESSURE= 101325.0
FREESTREAM_TEMPERATURE= 288.15

% ---------------------- REFERENCE VALUE DEFINITION ---------------------------%

REF_ORIGIN_MOMENT_X = 0.25
REF_ORIGIN_MOMENT_Y = 0.00
REF_ORIGIN_MOMENT_Z = 0.00

REF_LENGTH= 1.0
REF_AREA= 0
REF_DIMENSIONALIZATION= FREESTREAM_VEL_EQ_ONE

% ----------------------- BOUNDARY CONDITION DEFINITION -----------------------%

MARKER_EULER= ( WING )
MARKER_FAR = (FARFIELD) 
MARKER_SYM= ( SYMMETRY )

% ------------------------ SURFACES IDENTIFICATION ----------------------------%

MARKER_PLOTTING = ( WING )
MARKER_MONITORING = ( WING )
MARKER_DESIGNING = ( WING )

MARKER_DEFORM_MESH = ( WING )
MARKER_FLUID_LOAD = ( WING )

% --------------------------- MESH PARAMETERS ---------------------------------%
DEFORM_MESH = YES

DEFORM_NONLINEAR_ITER= 1
DEFORM_LINEAR_SOLVER= CONJUGATE_GRADIENT
DEFORM_LINEAR_SOLVER_PREC= ILU
DEFORM_LINEAR_SOLVER_ITER= 10000
DEFORM_LINEAR_SOLVER_ERROR= 1e-16
DEFORM_STIFFNESS_TYPE= WALL_DISTANCE
DEFORM_COEFF = 1E6

% ------------- COMMON PARAMETERS TO DEFINE THE NUMERICAL METHOD --------------%

NUM_METHOD_GRAD= WEIGHTED_LEAST_SQUARES

OBJECTIVE_FUNCTION= DRAG

CFL_NUMBER= 5.0
CFL_ADAPT= NO
CFL_ADAPT_PARAM= ( 1.5, 0.5, 1.0, 100.0 )
RK_ALPHA_COEFF= ( 0.66667, 0.66667, 1.000000 )

LINEAR_SOLVER= FGMRES
LINEAR_SOLVER_PREC= LU_SGS
LINEAR_SOLVER_ERROR= 1E-6
LINEAR_SOLVER_ITER= 2

% ----------------------- SLOPE LIMITER DEFINITION ----------------------------%

VENKAT_LIMITER_COEFF= 0.03
ADJ_SHARP_LIMITER_COEFF= 3.0
REF_SHARP_EDGES= 3.0
SENS_REMOVE_SHARP= YES

% -------------------------- MULTIGRID PARAMETERS -----------------------------%

MGLEVEL= 3
MGCYCLE= W_CYCLE
MG_PRE_SMOOTH= ( 1, 2, 3, 3 )
MG_POST_SMOOTH= ( 0, 0, 0, 0 )
MG_CORRECTION_SMOOTH= ( 0, 0, 0, 0 )
MG_DAMP_RESTRICTION= 0.9
MG_DAMP_PROLONGATION= 0.9

% -------------------- FLOW NUMERICAL METHOD DEFINITION -----------------------%

CONV_NUM_METHOD_FLOW= JST
MUSCL_FLOW= YES
SLOPE_LIMITER_FLOW= NONE
JST_SENSOR_COEFF= ( 0.5, 0.02 )
TIME_DISCRE_FLOW= EULER_IMPLICIT

% ---------------- ADJOINT-FLOW NUMERICAL METHOD DEFINITION -------------------%

CONV_NUM_METHOD_ADJFLOW= JST

MUSCL_ADJFLOW= YES
SLOPE_LIMITER_ADJFLOW= NONE
ADJ_JST_SENSOR_COEFF= ( 0.0, 0.02 )
CFL_REDUCTION_ADJFLOW= 0.5
TIME_DISCRE_ADJFLOW= EULER_IMPLICIT

% --------------------------- CONVERGENCE PARAMETERS --------------------------&

CONV_FIELD= RMS_DENSITY
CONV_RESIDUAL_MINVAL= -10
CONV_STARTITER= 25
CONV_CAUCHY_ELEMS= 100
CONV_CAUCHY_EPS= 1E-10

% ------------------------- INPUT/OUTPUT INFORMATION --------------------------%

MESH_FILENAME= mesh.su2

MESH_OUT_FILENAME= mesh_out.su2

SOLUTION_FILENAME= solution_flow
SOLUTION_ADJ_FILENAME= solution_adj

MESH_FORMAT= SU2
TABULAR_FORMAT= CSV

CONV_FILENAME= history

BREAKDOWN_FILENAME= forces_breakdown.dat

RESTART_FILENAME= restart_flow.dat
RESTART_ADJ_FILENAME= restart_adj.dat

VOLUME_FILENAME= flow
SURFACE_FILENAME= surface_flow

VOLUME_ADJ_FILENAME= adjoint
GRAD_OBJFUNC_FILENAME= of_grad.dat

SURFACE_ADJ_FILENAME= surface_adjoint

WRT_SOL_FREQ= 100
WRT_CON_FREQ= 1

